Circuit: * D:\itmo_labs\fundamentalsOfElectricalEngineering\LtSpice\Draft1.asc

Direct Newton iteration for .op point succeeded.

Date: Mon Sep 16 18:43:49 2024
Total elapsed time: 0.016 seconds.

tnom = 27
temp = 27
method = modified trap
totiter = 2099
traniter = 2096
tranpoints = 1049
accept = 1049
rejected = 0
matrix size = 1
fillins = 0
solver = Normal
Matrix Compiler1: off  0.0/0.0/[0.0]
Matrix Compiler2: off  [0.0]/0.0/0.0

